<?xml version="1.0" encoding="UTF-8"?>

<!-- generated on 2025-10-18 00:00:14.760455 by randomTrips.py v1_24_0+0000-b72eb3fabc8
<configuration>
    <net-file value="net/traffic_network.net.xml"/>
    <route-file value="routes/traffic_routes.rou.xml"/>
    <length value="True"/>
    <end value="600.0"/>
    <period value="1.5"/>
    <binomial value="2"/>
</configuration>
-->

<!-- generated on 2025-10-18 00:00:14 by Eclipse SUMO duarouter Version 1.24.0
<duarouterConfiguration xmlns:xsi="http://www.w3.org/2001/XMLSchema-instance" xsi:noNamespaceSchemaLocation="http://sumo.dlr.de/xsd/duarouterConfiguration.xsd">

    <input>
        <net-file value="net/traffic_network.net.xml"/>
        <route-files value="trips.trips.xml"/>
    </input>

    <output>
        <output-file value="routes/traffic_routes.rou.xml"/>
        <alternatives-output value="NUL"/>
    </output>

    <time>
        <begin value="0"/>
        <end value="600.0"/>
    </time>

    <report>
        <no-warnings value="true"/>
        <ignore-errors value="true"/>
        <no-step-log value="true"/>
    </report>

</duarouterConfiguration>
-->

<routes xmlns:xsi="http://www.w3.org/2001/XMLSchema-instance" xsi:noNamespaceSchemaLocation="http://sumo.dlr.de/xsd/routes_file.xsd">
    <vehicle id="0" depart="0.00">
        <route edges="A2B2 B2A2 A2A1"/>
    </vehicle>
    <vehicle id="1" depart="2.00">
        <route edges="B1A1 A1B1 B1B0 B0A0 A0A1"/>
    </vehicle>
    <vehicle id="2" depart="3.00">
        <route edges="B1B2 B2B1 B1B0 B0A0 A0A1"/>
    </vehicle>
    <vehicle id="3" depart="3.00">
        <route edges="B2B1 B1C1"/>
    </vehicle>
    <vehicle id="4" depart="4.00">
        <route edges="B2A2 A2A1 A1B1 B1C1 C1B1"/>
    </vehicle>
    <vehicle id="5" depart="4.00">
        <route edges="C1B1 B1B2 B2C2"/>
    </vehicle>
    <vehicle id="6" depart="5.00">
        <route edges="C2B2 B2B1 B1B0 B0A0"/>
    </vehicle>
    <vehicle id="7" depart="6.00">
        <route edges="A1A0 A0B0 B0B1 B1C1 C1C0"/>
    </vehicle>
    <vehicle id="8" depart="12.00">
        <route edges="A2A1 A1A2 A2B2"/>
    </vehicle>
    <vehicle id="9" depart="13.00">
        <route edges="A2A1 A1A0"/>
    </vehicle>
    <vehicle id="10" depart="13.00">
        <route edges="B2B1 B1B0 B0B1"/>
    </vehicle>
    <vehicle id="11" depart="14.00">
        <route edges="A2B2 B2B1 B1C1 C1C2 C2B2"/>
    </vehicle>
    <vehicle id="12" depart="16.00">
        <route edges="C0B0 B0A0 A0A1 A1A2"/>
    </vehicle>
    <vehicle id="13" depart="20.00">
        <route edges="A0A1 A1B1 B1B0 B0A0"/>
    </vehicle>
    <vehicle id="14" depart="20.00">
        <route edges="A2A1 A1B1 B1C1 C1C2 C2B2"/>
    </vehicle>
    <vehicle id="15" depart="21.00">
        <route edges="B2B1 B1B0 B0C0"/>
    </vehicle>
    <vehicle id="16" depart="23.00">
        <route edges="A2A1 A1B1 B1C1"/>
    </vehicle>
    <vehicle id="17" depart="23.00">
        <route edges="B2A2 A2A1 A1B1 B1C1 C1C2"/>
    </vehicle>
    <vehicle id="18" depart="24.00">
        <route edges="C2C1 C1B1 B1B2"/>
    </vehicle>
    <vehicle id="19" depart="25.00">
        <route edges="A0B0 B0B1 B1A1 A1A0"/>
    </vehicle>
    <vehicle id="20" depart="27.00">
        <route edges="B0C0 C0C1 C1B1 B1B2 B2C2 C2C1"/>
    </vehicle>
    <vehicle id="21" depart="29.00">
        <route edges="C0B0 B0B1 B1B2 B2C2"/>
    </vehicle>
    <vehicle id="22" depart="30.00">
        <route edges="B2B1 B1A1 A1A0"/>
    </vehicle>
    <vehicle id="23" depart="32.00">
        <route edges="B1B2 B2A2 A2A1 A1B1"/>
    </vehicle>
    <vehicle id="24" depart="34.00">
        <route edges="B2B1 B1B2 B2A2"/>
    </vehicle>
    <vehicle id="25" depart="34.00">
        <route edges="C0C1 C1B1 B1B2"/>
    </vehicle>
    <vehicle id="26" depart="36.00">
        <route edges="B0A0 A0A1"/>
    </vehicle>
    <vehicle id="27" depart="38.00">
        <route edges="A0B0 B0C0 C0C1 C1C2"/>
    </vehicle>
    <vehicle id="28" depart="39.00">
        <route edges="B1B0 B0A0 A0A1 A1A0 A0B0"/>
    </vehicle>
    <vehicle id="29" depart="40.00">
        <route edges="B1B0 B0B1 B1C1"/>
    </vehicle>
    <vehicle id="30" depart="41.00">
        <route edges="C1C0 C0B0 B0B1 B1A1"/>
    </vehicle>
    <vehicle id="31" depart="41.00">
        <route edges="B1B2 B2C2 C2C1 C1C0 C0B0"/>
    </vehicle>
    <vehicle id="32" depart="42.00">
        <route edges="B0A0 A0A1 A1A2 A2B2 B2C2 C2C1"/>
    </vehicle>
    <vehicle id="33" depart="44.00">
        <route edges="A2A1 A1A0 A0B0 B0B1"/>
    </vehicle>
    <vehicle id="34" depart="45.00">
        <route edges="A2A1 A1A0 A0B0"/>
    </vehicle>
    <vehicle id="35" depart="46.00">
        <route edges="C1C2 C2B2 B2B1 B1C1 C1C0"/>
    </vehicle>
    <vehicle id="36" depart="46.00">
        <route edges="A2A1 A1B1 B1B2 B2C2"/>
    </vehicle>
    <vehicle id="37" depart="47.00">
        <route edges="A1A2 A2B2 B2B1 B1C1 C1C2 C2B2"/>
    </vehicle>
    <vehicle id="38" depart="49.00">
        <route edges="A1A0 A0B0 B0B1 B1A1"/>
    </vehicle>
    <vehicle id="39" depart="52.00">
        <route edges="B0C0 C0C1 C1C0 C0B0 B0B1"/>
    </vehicle>
    <vehicle id="40" depart="53.00">
        <route edges="A1B1 B1A1"/>
    </vehicle>
    <vehicle id="41" depart="54.00">
        <route edges="A2A1 A1B1 B1C1 C1C2 C2B2"/>
    </vehicle>
    <vehicle id="42" depart="56.00">
        <route edges="C2C1 C1C0"/>
    </vehicle>
    <vehicle id="43" depart="58.00">
        <route edges="B1B0 B0B1 B1B2 B2A2 A2A1"/>
    </vehicle>
    <vehicle id="44" depart="59.00">
        <route edges="B0C0 C0C1 C1B1 B1B2 B2C2 C2C1"/>
    </vehicle>
    <vehicle id="45" depart="60.00">
        <route edges="C0C1 C1B1 B1A1"/>
    </vehicle>
    <vehicle id="46" depart="63.00">
        <route edges="B0A0 A0A1 A1A2 A2B2 B2C2 C2C1"/>
    </vehicle>
    <vehicle id="47" depart="65.00">
        <route edges="B2A2 A2A1 A1B1 B1B2"/>
    </vehicle>
    <vehicle id="48" depart="66.00">
        <route edges="C2C1 C1B1 B1A1 A1A0 A0B0"/>
    </vehicle>
    <vehicle id="49" depart="66.00">
        <route edges="B2A2 A2A1 A1B1 B1B2 B2C2"/>
    </vehicle>
    <vehicle id="50" depart="67.00">
        <route edges="A1A0 A0B0 B0C0 C0C1 C1C2"/>
    </vehicle>
    <vehicle id="51" depart="67.00">
        <route edges="B2A2"/>
    </vehicle>
    <vehicle id="52" depart="70.00">
        <route edges="C0B0 B0B1 B1B2 B2A2 A2A1"/>
    </vehicle>
    <vehicle id="53" depart="71.00">
        <route edges="B0A0 A0A1 A1B1 B1B0 B0C0 C0C1"/>
    </vehicle>
    <vehicle id="54" depart="72.00">
        <route edges="B1A1 A1A2 A2B2 B2C2 C2C1"/>
    </vehicle>
    <vehicle id="55" depart="73.00">
        <route edges="A2A1 A1A2 A2B2"/>
    </vehicle>
    <vehicle id="56" depart="75.00">
        <route edges="C1C0 C0B0 B0B1 B1B2 B2C2"/>
    </vehicle>
    <vehicle id="57" depart="77.00">
        <route edges="C1B1 B1B0 B0A0"/>
    </vehicle>
    <vehicle id="58" depart="79.00">
        <route edges="A1A0"/>
    </vehicle>
    <vehicle id="59" depart="80.00">
        <route edges="B2A2 A2A1 A1B1 B1C1 C1C0 C0B0"/>
    </vehicle>
    <vehicle id="60" depart="80.00">
        <route edges="B2B1 B1A1 A1A2 A2B2"/>
    </vehicle>
    <vehicle id="61" depart="82.00">
        <route edges="B1A1 A1A2 A2B2"/>
    </vehicle>
    <vehicle id="62" depart="83.00">
        <route edges="C0C1 C1C2 C2B2 B2B1"/>
    </vehicle>
    <vehicle id="63" depart="83.00">
        <route edges="C0B0 B0B1 B1C1"/>
    </vehicle>
    <vehicle id="64" depart="84.00">
        <route edges="A0B0 B0C0 C0C1 C1C2"/>
    </vehicle>
    <vehicle id="65" depart="87.00">
        <route edges="A1A2 A2B2 B2B1 B1B0 B0A0"/>
    </vehicle>
    <vehicle id="66" depart="89.00">
        <route edges="A2A1 A1A0"/>
    </vehicle>
    <vehicle id="67" depart="92.00">
        <route edges="C2B2 B2B1 B1C1 C1C0"/>
    </vehicle>
    <vehicle id="68" depart="94.00">
        <route edges="C0B0 B0A0"/>
    </vehicle>
    <vehicle id="69" depart="96.00">
        <route edges="C0C1 C1B1 B1A1 A1A0"/>
    </vehicle>
    <vehicle id="70" depart="98.00">
        <route edges="C1B1 B1B0"/>
    </vehicle>
    <vehicle id="71" depart="98.00">
        <route edges="C1B1 B1B2 B2A2 A2A1"/>
    </vehicle>
    <vehicle id="72" depart="99.00">
        <route edges="A1B1 B1B0 B0A0"/>
    </vehicle>
    <vehicle id="73" depart="100.00">
        <route edges="B2B1 B1B0 B0C0"/>
    </vehicle>
    <vehicle id="74" depart="102.00">
        <route edges="C2C1 C1B1 B1A1 A1B1"/>
    </vehicle>
    <vehicle id="75" depart="103.00">
        <route edges="A1A0 A0B0 B0B1 B1A1"/>
    </vehicle>
    <vehicle id="76" depart="104.00">
        <route edges="B2A2 A2A1 A1B1 B1B2"/>
    </vehicle>
    <vehicle id="77" depart="106.00">
        <route edges="C0B0 B0A0 A0A1"/>
    </vehicle>
    <vehicle id="78" depart="109.00">
        <route edges="B2C2 C2C1 C1C0 C0B0 B0A0"/>
    </vehicle>
    <vehicle id="79" depart="110.00">
        <route edges="C1C0 C0B0"/>
    </vehicle>
    <vehicle id="80" depart="110.00">
        <route edges="B0A0 A0A1 A1B1 B1B0 B0C0"/>
    </vehicle>
    <vehicle id="81" depart="111.00">
        <route edges="A1A2 A2B2 B2B1 B1A1"/>
    </vehicle>
    <vehicle id="82" depart="114.00">
        <route edges="B1C1 C1C0 C0B0 B0A0 A0A1"/>
    </vehicle>
    <vehicle id="83" depart="114.00">
        <route edges="B1A1 A1B1 B1C1"/>
    </vehicle>
    <vehicle id="84" depart="116.00">
        <route edges="B1B0 B0C0 C0C1 C1C2"/>
    </vehicle>
    <vehicle id="85" depart="117.00">
        <route edges="A1A0 A0B0 B0B1 B1B2"/>
    </vehicle>
    <vehicle id="86" depart="120.00">
        <route edges="A1B1 B1B0 B0A0 A0A1"/>
    </vehicle>
    <vehicle id="87" depart="121.00">
        <route edges="B1B0 B0B1 B1C1 C1C0"/>
    </vehicle>
    <vehicle id="88" depart="121.00">
        <route edges="B0C0 C0C1 C1C2 C2B2 B2B1"/>
    </vehicle>
    <vehicle id="89" depart="122.00">
        <route edges="B2C2 C2C1 C1B1 B1B0"/>
    </vehicle>
    <vehicle id="90" depart="122.00">
        <route edges="B2B1 B1B0 B0A0 A0A1"/>
    </vehicle>
    <vehicle id="91" depart="124.00">
        <route edges="B1A1 A1B1"/>
    </vehicle>
    <vehicle id="92" depart="125.00">
        <route edges="A2A1 A1B1 B1C1 C1C0"/>
    </vehicle>
    <vehicle id="93" depart="133.00">
        <route edges="A2A1 A1A2 A2B2 B2B1"/>
    </vehicle>
    <vehicle id="94" depart="135.00">
        <route edges="A0B0 B0B1 B1A1 A1A2 A2B2"/>
    </vehicle>
    <vehicle id="95" depart="136.00">
        <route edges="B0A0 A0A1 A1B1 B1B2"/>
    </vehicle>
    <vehicle id="96" depart="136.00">
        <route edges="A2A1 A1B1 B1B2 B2C2"/>
    </vehicle>
    <vehicle id="97" depart="137.00">
        <route edges="B0C0 C0C1 C1B1 B1C1"/>
    </vehicle>
    <vehicle id="98" depart="138.00">
        <route edges="B1A1 A1B1 B1C1 C1C2"/>
    </vehicle>
    <vehicle id="99" depart="141.00">
        <route edges="B0B1 B1B0 B0C0 C0C1"/>
    </vehicle>
    <vehicle id="100" depart="145.00">
        <route edges="A2A1 A1B1 B1A1"/>
    </vehicle>
    <vehicle id="101" depart="145.00">
        <route edges="B0A0 A0A1 A1A2 A2B2 B2C2"/>
    </vehicle>
    <vehicle id="102" depart="146.00">
        <route edges="B1B0 B0A0 A0A1 A1A2"/>
    </vehicle>
    <vehicle id="103" depart="147.00">
        <route edges="B0C0 C0C1 C1B1 B1C1"/>
    </vehicle>
    <vehicle id="104" depart="148.00">
        <route edges="B2B1 B1A1 A1A2"/>
    </vehicle>
    <vehicle id="105" depart="149.00">
        <route edges="B0C0 C0C1 C1C2 C2B2 B2A2 A2A1"/>
    </vehicle>
    <vehicle id="106" depart="149.00">
        <route edges="C0C1 C1B1 B1B0 B0C0"/>
    </vehicle>
    <vehicle id="107" depart="151.00">
        <route edges="A0B0 B0A0 A0A1"/>
    </vehicle>
    <vehicle id="108" depart="155.00">
        <route edges="A0A1 A1A2"/>
    </vehicle>
    <vehicle id="109" depart="156.00">
        <route edges="B2C2 C2C1 C1B1 B1C1"/>
    </vehicle>
    <vehicle id="110" depart="156.00">
        <route edges="B2C2 C2C1 C1B1 B1B0 B0C0 C0C1"/>
    </vehicle>
    <vehicle id="111" depart="157.00">
        <route edges="B2A2 A2A1 A1B1 B1C1 C1C0 C0B0"/>
    </vehicle>
    <vehicle id="112" depart="157.00">
        <route edges="C1B1 B1B2 B2C2 C2C1"/>
    </vehicle>
    <vehicle id="113" depart="158.00">
        <route edges="A0A1 A1B1 B1B0 B0A0"/>
    </vehicle>
    <vehicle id="114" depart="160.00">
        <route edges="B2C2 C2C1 C1B1 B1B2 B2B1"/>
    </vehicle>
    <vehicle id="115" depart="161.00">
        <route edges="C0C1 C1C0"/>
    </vehicle>
    <vehicle id="116" depart="162.00">
        <route edges="C2C1 C1B1 B1B0 B0C0 C0C1"/>
    </vehicle>
    <vehicle id="117" depart="166.00">
        <route edges="C2C1 C1B1 B1B2 B2B1"/>
    </vehicle>
    <vehicle id="118" depart="169.00">
        <route edges="C1B1 B1B2"/>
    </vehicle>
    <vehicle id="119" depart="171.00">
        <route edges="C1C0"/>
    </vehicle>
    <vehicle id="120" depart="171.00">
        <route edges="C1C2 C2B2 B2A2 A2A1"/>
    </vehicle>
    <vehicle id="121" depart="173.00">
        <route edges="C1C0 C0B0 B0A0 A0A1 A1B1"/>
    </vehicle>
    <vehicle id="122" depart="174.00">
        <route edges="C1B1 B1B0 B0B1"/>
    </vehicle>
    <vehicle id="123" depart="175.00">
        <route edges="A0A1 A1B1 B1C1 C1C2 C2B2"/>
    </vehicle>
    <vehicle id="124" depart="176.00">
        <route edges="C0B0 B0B1 B1B0"/>
    </vehicle>
    <vehicle id="125" depart="179.00">
        <route edges="A2A1 A1B1 B1B2 B2C2"/>
    </vehicle>
    <vehicle id="126" depart="179.00">
        <route edges="B2A2 A2A1 A1B1 B1B0"/>
    </vehicle>
    <vehicle id="127" depart="181.00">
        <route edges="B2C2 C2C1 C1B1 B1A1 A1A2 A2B2"/>
    </vehicle>
    <vehicle id="128" depart="182.00">
        <route edges="A1A0 A0B0 B0A0 A0A1 A1B1"/>
    </vehicle>
    <vehicle id="129" depart="182.00">
        <route edges="B1B2 B2B1 B1B0 B0C0 C0C1"/>
    </vehicle>
    <vehicle id="130" depart="183.00">
        <route edges="A2A1 A1B1 B1B0"/>
    </vehicle>
    <vehicle id="131" depart="185.00">
        <route edges="A1A0 A0B0 B0A0 A0A1 A1B1"/>
    </vehicle>
    <vehicle id="132" depart="185.00">
        <route edges="A1B1 B1B0 B0A0 A0A1"/>
    </vehicle>
    <vehicle id="133" depart="186.00">
        <route edges="C2C1 C1B1 B1C1"/>
    </vehicle>
    <vehicle id="134" depart="187.00">
        <route edges="C1C0 C0B0 B0B1 B1B0"/>
    </vehicle>
    <vehicle id="135" depart="190.00">
        <route edges="A0B0 B0C0 C0C1 C1C2 C2B2"/>
    </vehicle>
    <vehicle id="136" depart="192.00">
        <route edges="B2B1 B1A1 A1A0 A0B0"/>
    </vehicle>
    <vehicle id="137" depart="192.00">
        <route edges="B1C1 C1C0 C0B0 B0A0"/>
    </vehicle>
    <vehicle id="138" depart="193.00">
        <route edges="C0C1 C1C2 C2B2 B2A2"/>
    </vehicle>
    <vehicle id="139" depart="194.00">
        <route edges="B1B2 B2B1 B1A1"/>
    </vehicle>
    <vehicle id="140" depart="196.00">
        <route edges="B2A2"/>
    </vehicle>
    <vehicle id="141" depart="198.00">
        <route edges="A2A1 A1A2 A2B2 B2B1"/>
    </vehicle>
    <vehicle id="142" depart="198.00">
        <route edges="A1B1 B1A1 A1A0 A0B0"/>
    </vehicle>
    <vehicle id="143" depart="199.00">
        <route edges="B1A1 A1A2 A2B2 B2A2"/>
    </vehicle>
    <vehicle id="144" depart="199.00">
        <route edges="A2A1 A1B1 B1C1 C1C0 C0B0"/>
    </vehicle>
    <vehicle id="145" depart="206.00">
        <route edges="A1A2 A2B2 B2B1 B1B0 B0A0"/>
    </vehicle>
    <vehicle id="146" depart="208.00">
        <route edges="A1A0 A0B0 B0B1 B1B2 B2C2"/>
    </vehicle>
    <vehicle id="147" depart="210.00">
        <route edges="A0A1 A1B1 B1A1"/>
    </vehicle>
    <vehicle id="148" depart="211.00">
        <route edges="A2A1 A1A0"/>
    </vehicle>
    <vehicle id="149" depart="214.00">
        <route edges="A0A1 A1B1 B1B0 B0C0 C0C1"/>
    </vehicle>
    <vehicle id="150" depart="216.00">
        <route edges="B2A2 A2A1 A1A2 A2B2 B2B1"/>
    </vehicle>
    <vehicle id="151" depart="217.00">
        <route edges="B0B1 B1B0 B0A0"/>
    </vehicle>
    <vehicle id="152" depart="219.00">
        <route edges="B2C2 C2C1 C1B1 B1A1 A1A2 A2B2"/>
    </vehicle>
    <vehicle id="153" depart="221.00">
        <route edges="B0A0 A0A1 A1A2 A2B2 B2C2 C2C1"/>
    </vehicle>
    <vehicle id="154" depart="225.00">
        <route edges="B0B1 B1B0 B0C0 C0C1"/>
    </vehicle>
    <vehicle id="155" depart="226.00">
        <route edges="B1C1 C1C2 C2B2"/>
    </vehicle>
    <vehicle id="156" depart="228.00">
        <route edges="C2C1 C1B1 B1B2 B2A2"/>
    </vehicle>
    <vehicle id="157" depart="228.00">
        <route edges="A1A2 A2B2 B2B1 B1C1"/>
    </vehicle>
    <vehicle id="158" depart="229.00">
        <route edges="C2C1 C1C2"/>
    </vehicle>
    <vehicle id="159" depart="230.00">
        <route edges="C1C0 C0B0 B0B1 B1B0"/>
    </vehicle>
    <vehicle id="160" depart="232.00">
        <route edges="C1C0 C0B0 B0B1 B1B2 B2C2 C2C1"/>
    </vehicle>
    <vehicle id="161" depart="232.00">
        <route edges="B1C1 C1C0 C0B0 B0C0"/>
    </vehicle>
    <vehicle id="162" depart="235.00">
        <route edges="C0C1 C1B1 B1B0 B0C0"/>
    </vehicle>
    <vehicle id="163" depart="237.00">
        <route edges="B0A0 A0A1 A1B1 B1B2 B2A2"/>
    </vehicle>
    <vehicle id="164" depart="238.00">
        <route edges="B1B2 B2B1 B1B0 B0B1"/>
    </vehicle>
    <vehicle id="165" depart="240.00">
        <route edges="A1B1 B1B2 B2C2"/>
    </vehicle>
    <vehicle id="166" depart="241.00">
        <route edges="C0C1 C1B1 B1A1 A1A0 A0B0"/>
    </vehicle>
    <vehicle id="167" depart="246.00">
        <route edges="B1B2 B2A2"/>
    </vehicle>
    <vehicle id="168" depart="250.00">
        <route edges="B1B0 B0B1 B1B2 B2C2 C2C1"/>
    </vehicle>
    <vehicle id="169" depart="254.00">
        <route edges="C0B0 B0C0 C0C1"/>
    </vehicle>
    <vehicle id="170" depart="255.00">
        <route edges="A0B0 B0B1 B1B2 B2B1"/>
    </vehicle>
    <vehicle id="171" depart="258.00">
        <route edges="B2B1 B1C1 C1C0"/>
    </vehicle>
    <vehicle id="172" depart="260.00">
        <route edges="C1B1 B1A1 A1A2 A2B2"/>
    </vehicle>
    <vehicle id="173" depart="261.00">
        <route edges="B1B2 B2B1 B1C1"/>
    </vehicle>
    <vehicle id="174" depart="262.00">
        <route edges="A0B0 B0B1 B1C1 C1C0"/>
    </vehicle>
    <vehicle id="175" depart="263.00">
        <route edges="C1C2 C2B2 B2B1 B1A1 A1A2"/>
    </vehicle>
    <vehicle id="176" depart="264.00">
        <route edges="A2B2 B2B1 B1B0 B0A0 A0A1"/>
    </vehicle>
    <vehicle id="177" depart="266.00">
        <route edges="B1A1 A1A0 A0B0 B0B1"/>
    </vehicle>
    <vehicle id="178" depart="268.00">
        <route edges="C1C0 C0B0 B0A0 A0A1 A1B1"/>
    </vehicle>
    <vehicle id="179" depart="269.00">
        <route edges="B1C1"/>
    </vehicle>
    <vehicle id="180" depart="270.00">
        <route edges="C2C1 C1B1 B1B2 B2B1"/>
    </vehicle>
    <vehicle id="181" depart="271.00">
        <route edges="B1C1 C1B1 B1B2 B2C2"/>
    </vehicle>
    <vehicle id="182" depart="272.00">
        <route edges="B2A2 A2A1 A1B1 B1B0"/>
    </vehicle>
    <vehicle id="183" depart="273.00">
        <route edges="C1B1 B1B2 B2A2"/>
    </vehicle>
    <vehicle id="184" depart="278.00">
        <route edges="B1A1 A1B1 B1C1"/>
    </vehicle>
    <vehicle id="185" depart="279.00">
        <route edges="B0A0 A0A1 A1B1 B1C1 C1C0 C0B0"/>
    </vehicle>
    <vehicle id="186" depart="280.00">
        <route edges="A1A2 A2B2 B2B1 B1B2"/>
    </vehicle>
    <vehicle id="187" depart="282.00">
        <route edges="C1B1 B1B0"/>
    </vehicle>
    <vehicle id="188" depart="284.00">
        <route edges="C2C1 C1B1 B1A1 A1A2"/>
    </vehicle>
    <vehicle id="189" depart="289.00">
        <route edges="B1B2 B2B1 B1A1"/>
    </vehicle>
    <vehicle id="190" depart="292.00">
        <route edges="A2A1 A1B1 B1B0 B0A0 A0A1"/>
    </vehicle>
    <vehicle id="191" depart="294.00">
        <route edges="A0B0 B0C0 C0C1 C1B1"/>
    </vehicle>
    <vehicle id="192" depart="295.00">
        <route edges="B0C0 C0C1 C1B1 B1A1 A1A2"/>
    </vehicle>
    <vehicle id="193" depart="296.00">
        <route edges="B1B0 B0A0 A0A1 A1A0"/>
    </vehicle>
    <vehicle id="194" depart="297.00">
        <route edges="B1A1 A1A2 A2B2 B2C2"/>
    </vehicle>
    <vehicle id="195" depart="299.00">
        <route edges="B0C0 C0C1 C1B1 B1A1 A1A0"/>
    </vehicle>
    <vehicle id="196" depart="301.00">
        <route edges="B0B1 B1A1"/>
    </vehicle>
    <vehicle id="197" depart="303.00">
        <route edges="B2C2 C2C1 C1B1 B1C1"/>
    </vehicle>
    <vehicle id="198" depart="305.00">
        <route edges="A1A0 A0B0 B0B1 B1C1 C1C0"/>
    </vehicle>
    <vehicle id="199" depart="307.00">
        <route edges="C0C1 C1C2 C2B2 B2A2 A2A1"/>
    </vehicle>
    <vehicle id="200" depart="308.00">
        <route edges="B1C1 C1B1 B1A1 A1A0 A0B0"/>
    </vehicle>
    <vehicle id="201" depart="309.00">
        <route edges="A2A1 A1B1 B1C1 C1C0"/>
    </vehicle>
    <vehicle id="202" depart="309.00">
        <route edges="A1A2 A2B2 B2B1 B1C1 C1C2"/>
    </vehicle>
    <vehicle id="203" depart="310.00">
        <route edges="C1C0 C0B0 B0A0 A0A1 A1A2"/>
    </vehicle>
    <vehicle id="204" depart="310.00">
        <route edges="A2A1 A1B1"/>
    </vehicle>
    <vehicle id="205" depart="311.00">
        <route edges="A0A1 A1B1 B1B0 B0C0 C0C1"/>
    </vehicle>
    <vehicle id="206" depart="312.00">
        <route edges="B0A0 A0A1 A1B1"/>
    </vehicle>
    <vehicle id="207" depart="312.00">
        <route edges="C0B0 B0B1 B1B2"/>
    </vehicle>
    <vehicle id="208" depart="315.00">
        <route edges="B1B2 B2C2 C2C1 C1C2 C2B2"/>
    </vehicle>
    <vehicle id="209" depart="315.00">
        <route edges="C0C1 C1C0"/>
    </vehicle>
    <vehicle id="210" depart="317.00">
        <route edges="B1B0 B0C0"/>
    </vehicle>
    <vehicle id="211" depart="319.00">
        <route edges="A0B0 B0B1 B1B2 B2A2"/>
    </vehicle>
    <vehicle id="212" depart="320.00">
        <route edges="A2B2 B2B1"/>
    </vehicle>
    <vehicle id="213" depart="321.00">
        <route edges="C2C1 C1B1 B1B2"/>
    </vehicle>
    <vehicle id="214" depart="322.00">
        <route edges="B2C2 C2C1 C1C0"/>
    </vehicle>
    <vehicle id="215" depart="324.00">
        <route edges="B1A1 A1A2 A2B2 B2A2 A2A1"/>
    </vehicle>
    <vehicle id="216" depart="326.00">
        <route edges="B1A1 A1A2 A2B2 B2C2"/>
    </vehicle>
    <vehicle id="217" depart="327.00">
        <route edges="C2B2 B2A2 A2A1 A1A0 A0B0"/>
    </vehicle>
    <vehicle id="218" depart="328.00">
        <route edges="A1A0 A0B0 B0B1 B1C1 C1C0 C0B0"/>
    </vehicle>
    <vehicle id="219" depart="331.00">
        <route edges="A1A0 A0B0 B0B1"/>
    </vehicle>
    <vehicle id="220" depart="335.00">
        <route edges="B2B1 B1B2 B2A2 A2A1"/>
    </vehicle>
    <vehicle id="221" depart="336.00">
        <route edges="C1C0 C0B0 B0B1"/>
    </vehicle>
    <vehicle id="222" depart="340.00">
        <route edges="C2B2 B2C2 C2C1 C1B1"/>
    </vehicle>
    <vehicle id="223" depart="341.00">
        <route edges="A1B1 B1B2 B2C2"/>
    </vehicle>
    <vehicle id="224" depart="341.00">
        <route edges="B0B1 B1B0 B0A0 A0A1"/>
    </vehicle>
    <vehicle id="225" depart="343.00">
        <route edges="B2B1 B1B0 B0A0 A0A1"/>
    </vehicle>
    <vehicle id="226" depart="344.00">
        <route edges="B1A1 A1A0 A0B0 B0B1"/>
    </vehicle>
    <vehicle id="227" depart="347.00">
        <route edges="A0B0 B0B1 B1A1 A1A2"/>
    </vehicle>
    <vehicle id="228" depart="348.00">
        <route edges="B2B1 B1B0"/>
    </vehicle>
    <vehicle id="229" depart="349.00">
        <route edges="C0C1 C1B1 B1A1 A1A0"/>
    </vehicle>
    <vehicle id="230" depart="350.00">
        <route edges="B2C2 C2C1 C1B1 B1B0"/>
    </vehicle>
    <vehicle id="231" depart="351.00">
        <route edges="B0C0 C0C1 C1C2 C2B2 B2A2"/>
    </vehicle>
    <vehicle id="232" depart="352.00">
        <route edges="B0A0 A0A1 A1B1 B1B2 B2A2 A2A1"/>
    </vehicle>
    <vehicle id="233" depart="352.00">
        <route edges="A2B2 B2B1 B1B0 B0A0"/>
    </vehicle>
    <vehicle id="234" depart="353.00">
        <route edges="C0B0 B0A0 A0A1 A1B1"/>
    </vehicle>
    <vehicle id="235" depart="356.00">
        <route edges="C1C0 C0B0 B0A0 A0A1"/>
    </vehicle>
    <vehicle id="236" depart="356.00">
        <route edges="C2B2 B2B1 B1C1 C1C0"/>
    </vehicle>
    <vehicle id="237" depart="359.00">
        <route edges="A0A1 A1B1 B1B0 B0A0"/>
    </vehicle>
    <vehicle id="238" depart="361.00">
        <route edges="C1C0 C0B0 B0B1 B1B2 B2A2 A2A1"/>
    </vehicle>
    <vehicle id="239" depart="363.00">
        <route edges="B0B1 B1B0 B0A0"/>
    </vehicle>
    <vehicle id="240" depart="364.00">
        <route edges="B1B2 B2A2 A2A1 A1A0"/>
    </vehicle>
    <vehicle id="241" depart="367.00">
        <route edges="A1A2 A2B2 B2B1 B1A1 A1B1"/>
    </vehicle>
    <vehicle id="242" depart="369.00">
        <route edges="C0C1 C1B1 B1B0"/>
    </vehicle>
    <vehicle id="243" depart="374.00">
        <route edges="A0B0 B0B1 B1A1"/>
    </vehicle>
    <vehicle id="244" depart="375.00">
        <route edges="A2B2 B2B1 B1A1 A1A0 A0B0"/>
    </vehicle>
    <vehicle id="245" depart="376.00">
        <route edges="B1A1 A1A0 A0B0"/>
    </vehicle>
    <vehicle id="246" depart="377.00">
        <route edges="C1C0"/>
    </vehicle>
    <vehicle id="247" depart="382.00">
        <route edges="B1B0 B0A0 A0A1 A1A2"/>
    </vehicle>
    <vehicle id="248" depart="382.00">
        <route edges="A1A0 A0B0 B0C0 C0C1 C1C2"/>
    </vehicle>
    <vehicle id="249" depart="384.00">
        <route edges="A2A1 A1B1 B1A1"/>
    </vehicle>
    <vehicle id="250" depart="386.00">
        <route edges="B0B1 B1A1 A1A2 A2B2"/>
    </vehicle>
    <vehicle id="251" depart="389.00">
        <route edges="A1A0 A0B0 B0B1 B1B2 B2C2"/>
    </vehicle>
    <vehicle id="252" depart="389.00">
        <route edges="C0B0 B0B1 B1B2 B2B1"/>
    </vehicle>
    <vehicle id="253" depart="392.00">
        <route edges="B0B1 B1B2 B2C2 C2C1"/>
    </vehicle>
    <vehicle id="254" depart="394.00">
        <route edges="B0B1 B1C1 C1B1"/>
    </vehicle>
    <vehicle id="255" depart="400.00">
        <route edges="A2A1 A1B1 B1C1 C1C2 C2B2"/>
    </vehicle>
    <vehicle id="256" depart="401.00">
        <route edges="A1A2 A2B2 B2B1 B1A1 A1A0 A0B0"/>
    </vehicle>
    <vehicle id="257" depart="402.00">
        <route edges="C0C1 C1C0"/>
    </vehicle>
    <vehicle id="258" depart="403.00">
        <route edges="B0B1 B1B0 B0C0 C0C1"/>
    </vehicle>
    <vehicle id="259" depart="403.00">
        <route edges="B0B1 B1A1 A1A2"/>
    </vehicle>
    <vehicle id="260" depart="405.00">
        <route edges="B1A1 A1A0 A0B0 B0C0"/>
    </vehicle>
    <vehicle id="261" depart="406.00">
        <route edges="B1A1 A1A2 A2B2"/>
    </vehicle>
    <vehicle id="262" depart="408.00">
        <route edges="C1B1 B1B0"/>
    </vehicle>
    <vehicle id="263" depart="411.00">
        <route edges="B0C0 C0C1 C1B1 B1B2"/>
    </vehicle>
    <vehicle id="264" depart="413.00">
        <route edges="A2A1 A1A2 A2B2 B2B1"/>
    </vehicle>
    <vehicle id="265" depart="415.00">
        <route edges="C1C0"/>
    </vehicle>
    <vehicle id="266" depart="415.00">
        <route edges="C0C1 C1B1 B1A1 A1A2 A2B2"/>
    </vehicle>
    <vehicle id="267" depart="416.00">
        <route edges="B1A1 A1B1 B1C1 C1C2 C2B2"/>
    </vehicle>
    <vehicle id="268" depart="417.00">
        <route edges="B1A1 A1A0 A0B0 B0B1"/>
    </vehicle>
    <vehicle id="269" depart="417.00">
        <route edges="A0B0 B0B1 B1B2"/>
    </vehicle>
    <vehicle id="270" depart="418.00">
        <route edges="C2C1 C1C0 C0B0 B0B1"/>
    </vehicle>
    <vehicle id="271" depart="418.00">
        <route edges="C2B2 B2B1 B1C1 C1C0"/>
    </vehicle>
    <vehicle id="272" depart="420.00">
        <route edges="A2B2 B2C2 C2C1 C1B1"/>
    </vehicle>
    <vehicle id="273" depart="421.00">
        <route edges="B2C2 C2C1 C1B1 B1A1"/>
    </vehicle>
    <vehicle id="274" depart="421.00">
        <route edges="A0B0 B0B1 B1A1 A1A2 A2B2"/>
    </vehicle>
    <vehicle id="275" depart="424.00">
        <route edges="A2B2 B2B1 B1B0 B0A0"/>
    </vehicle>
    <vehicle id="276" depart="424.00">
        <route edges="B1A1 A1B1 B1C1 C1B1"/>
    </vehicle>
    <vehicle id="277" depart="425.00">
        <route edges="C1C2 C2B2 B2A2"/>
    </vehicle>
    <vehicle id="278" depart="426.00">
        <route edges="B1B2 B2A2 A2A1"/>
    </vehicle>
    <vehicle id="279" depart="426.00">
        <route edges="B1A1 A1A2 A2B2 B2A2"/>
    </vehicle>
    <vehicle id="280" depart="427.00">
        <route edges="B0C0 C0C1 C1B1 B1B2 B2C2"/>
    </vehicle>
    <vehicle id="281" depart="427.00">
        <route edges="C2C1 C1B1 B1A1 A1A0 A0B0"/>
    </vehicle>
    <vehicle id="282" depart="432.00">
        <route edges="A0A1 A1B1 B1B0 B0C0 C0C1"/>
    </vehicle>
    <vehicle id="283" depart="435.00">
        <route edges="A0B0 B0B1 B1C1"/>
    </vehicle>
    <vehicle id="284" depart="436.00">
        <route edges="C0C1 C1B1 B1B0"/>
    </vehicle>
    <vehicle id="285" depart="438.00">
        <route edges="C0C1 C1B1 B1A1"/>
    </vehicle>
    <vehicle id="286" depart="438.00">
        <route edges="A0B0 B0A0 A0A1 A1B1"/>
    </vehicle>
    <vehicle id="287" depart="439.00">
        <route edges="C2B2 B2B1 B1B2"/>
    </vehicle>
    <vehicle id="288" depart="440.00">
        <route edges="C0C1 C1B1 B1A1 A1B1"/>
    </vehicle>
    <vehicle id="289" depart="442.00">
        <route edges="A1A0 A0B0 B0B1"/>
    </vehicle>
    <vehicle id="290" depart="448.00">
        <route edges="B2A2 A2A1 A1B1 B1C1 C1B1"/>
    </vehicle>
    <vehicle id="291" depart="449.00">
        <route edges="A0B0 B0B1 B1B2 B2B1"/>
    </vehicle>
    <vehicle id="292" depart="450.00">
        <route edges="B2A2 A2A1 A1B1 B1A1"/>
    </vehicle>
    <vehicle id="293" depart="451.00">