<?xml version="1.0" encoding="UTF-8"?>

<!-- generated on 2025-10-20 14:51:30 by Eclipse SUMO duarouter Version 1.24.0
<duarouterConfiguration xmlns:xsi="http://www.w3.org/2001/XMLSchema-instance" xsi:noNamespaceSchemaLocation="http://sumo.dlr.de/xsd/duarouterConfiguration.xsd">

    <input>
        <net-file value="net/traffic_network.net.xml"/>
        <route-files value="trips.trips.xml"/>
    </input>

    <output>
        <output-file value="routes\trucks.rou.xml"/>
        <vtype-output value="truck"/>
        <alternatives-output value="NUL"/>
    </output>

    <time>
        <begin value="0"/>
        <end value="600.0"/>
    </time>

    <report>
        <no-warnings value="true"/>
        <ignore-errors value="true"/>
        <no-step-log value="true"/>
    </report>

</duarouterConfiguration>
-->

<routes xmlns:xsi="http://www.w3.org/2001/XMLSchema-instance" xsi:noNamespaceSchemaLocation="http://sumo.dlr.de/xsd/routes_file.xsd">
    <vehicle id="truck_0" depart="0.00">
        <route edges="A0B0 B0A0 A0A1 A1B1"/>
    </vehicle>
    <vehicle id="truck_1" depart="12.00">
        <route edges="C1C2 C2B2 B2B1 B1A1"/>
    </vehicle>
    <vehicle id="truck_2" depart="24.00">
        <route edges="C0B0 B0A0"/>
    </vehicle>
    <vehicle id="truck_3" depart="36.00">
        <route edges="B2A2 A2A1 A1B1 B1C1 C1C0 C0B0"/>
    </vehicle>
    <vehicle id="truck_4" depart="48.00">
        <route edges="B2A2 A2A1 A1A0 A0B0"/>
    </vehicle>
    <vehicle id="truck_5" depart="60.00">
        <route edges="B0B1 B1C1 C1C2"/>
    </vehicle>
    <vehicle id="truck_6" depart="72.00">
        <route edges="A2A1 A1B1 B1C1 C1C0"/>
    </vehicle>
    <vehicle id="truck_7" depart="84.00">
        <route edges="B1C1 C1C2 C2B2 B2A2 A2A1"/>
    </vehicle>
    <vehicle id="truck_8" depart="96.00">
        <route edges="B0B1 B1A1"/>
    </vehicle>
    <vehicle id="truck_9" depart="108.00">
        <route edges="B1C1 C1B1 B1A1 A1A0 A0B0"/>
    </vehicle>
    <vehicle id="truck_10" depart="120.00">
        <route edges="A1A2 A2B2"/>
    </vehicle>
    <vehicle id="truck_11" depart="132.00">
        <route edges="A1A2 A2B2 B2B1 B1B0 B0B1"/>
    </vehicle>
    <vehicle id="truck_12" depart="144.00">
        <route edges="B2C2 C2C1 C1C0 C0B0 B0A0 A0A1"/>
    </vehicle>
    <vehicle id="truck_13" depart="156.00">
        <route edges="B0B1 B1C1 C1C0 C0B0"/>
    </vehicle>
    <vehicle id="truck_14" depart="168.00">
        <route edges="A2B2 B2B1 B1B0 B0A0"/>
    </vehicle>
    <vehicle id="truck_15" depart="180.00">
        <route edges="B2B1 B1B2 B2A2"/>
    </vehicle>
    <vehicle id="truck_16" depart="192.00">
        <route edges="B1B2 B2B1 B1A1 A1A2 A2B2"/>
    </vehicle>
    <vehicle id="truck_17" depart="204.00">
        <route edges="B0C0 C0C1 C1B1 B1B0 B0A0"/>
    </vehicle>
    <vehicle id="truck_18" depart="216.00">
        <route edges="C0C1 C1B1 B1B2 B2C2"/>
    </vehicle>
    <vehicle id="truck_19" depart="228.00">
        <route edges="A1B1 B1C1 C1C2"/>
    </vehicle>
    <vehicle id="truck_20" depart="240.00">
        <route edges="A1B1 B1C1 C1C2 C2B2"/>
    </vehicle>
    <vehicle id="truck_21" depart="252.00">
        <route edges="A0B0 B0B1"/>
    </vehicle>
    <vehicle id="truck_22" depart="264.00">
        <route edges="B1A1 A1A2"/>
    </vehicle>
    <vehicle id="truck_23" depart="276.00">
        <route edges="A1A0 A0B0 B0B1 B1B2 B2A2"/>
    </vehicle>
    <vehicle id="truck_24" depart="288.00">
        <route edges="B1C1 C1B1 B1B2"/>
    </vehicle>
    <vehicle id="truck_25" depart="300.00">
        <route edges="C0C1 C1B1 B1A1 A1A0"/>
    </vehicle>
    <vehicle id="truck_26" depart="312.00">
        <route edges="A1B1 B1A1 A1A2"/>
    </vehicle>
    <vehicle id="truck_27" depart="324.00">
        <route edges="B0A0 A0A1 A1B1 B1C1"/>
    </vehicle>
    <vehicle id="truck_28" depart="336.00">
        <route edges="A0A1 A1A2 A2B2 B2B1"/>
    </vehicle>
    <vehicle id="truck_29" depart="348.00">
        <route edges="C0C1 C1B1 B1B0"/>
    </vehicle>
    <vehicle id="truck_30" depart="360.00">
        <route edges="C2C1 C1C0 C0B0 B0A0 A0A1"/>
    </vehicle>
    <vehicle id="truck_31" depart="372.00">
        <route edges="B2B1 B1B0 B0C0 C0C1"/>
    </vehicle>
    <vehicle id="truck_32" depart="384.00">
        <route edges="A1A0 A0B0 B0B1"/>
    </vehicle>
    <vehicle id="truck_33" depart="396.00">
        <route edges="B1C1 C1B1 B1A1"/>
    </vehicle>
    <vehicle id="truck_34" depart="408.00">
        <route edges="B0A0 A0A1 A1B1 B1C1 C1C0"/>
    </vehicle>
    <vehicle id="truck_35" depart="420.00">
        <route edges="A1A2 A2B2 B2B1 B1A1 A1A0"/>
    </vehicle>
    <vehicle id="truck_36" depart="432.00">
        <route edges="A1A2 A2B2 B2C2 C2C1 C1B1"/>
    </vehicle>
    <vehicle id="truck_37" depart="444.00">
        <route edges="A0B0 B0B1 B1B2"/>
    </vehicle>
    <vehicle id="truck_38" depart="456.00">
        <route edges="B0C0 C0C1 C1B1 B1A1 A1A2"/>
    </vehicle>
    <vehicle id="truck_39" depart="468.00">
        <route edges="C2B2 B2B1 B1B0"/>
    </vehicle>
    <vehicle id="truck_40" depart="480.00">
        <route edges="C0B0 B0C0"/>
    </vehicle>
    <vehicle id="truck_41" depart="492.00">
        <route edges="B2A2"/>
    </vehicle>
    <vehicle id="truck_42" depart="504.00">
        <route edges="B2B1 B1B2 B2A2"/>
    </vehicle>
    <vehicle id="truck_43" depart="516.00">
        <route edges="A0A1 A1A2"/>
    </vehicle>
    <vehicle id="truck_44" depart="528.00">
        <route edges="B2B1 B1B2 B2C2"/>
    </vehicle>
    <vehicle id="truck_45" depart="540.00">
        <route edges="A1A0 A0B0 B0B1 B1B2 B2C2 C2C1"/>
    </vehicle>
    <vehicle id="truck_46" depart="552.00">
        <route edges="B2B1 B1B2"/>
    </vehicle>
    <vehicle id="truck_47" depart="564.00">
        <route edges="A1A2 A2B2 B2B1 B1A1 A1A0 A0B0"/>
    </vehicle>
    <vehicle id="truck_48" depart="576.00">
        <route edges="A1B1 B1B0"/>
    </vehicle>
    <vehicle id="truck_49" depart="588.00">
        <route edges="B0A0 A0A1 A1A2 A2B2 B2C2"/>
    </vehicle>
</routes>
