<?xml version="1.0" encoding="UTF-8"?>

<!-- generated on 2025-10-24 11:59:37 by Eclipse SUMO netconvert Version 1.24.0
<netconvertConfiguration xmlns:xsi="http://www.w3.org/2001/XMLSchema-instance" xsi:noNamespaceSchemaLocation="http://sumo.dlr.de/xsd/netconvertConfiguration.xsd">

    <input>
        <node-files value=".\net\realistic_intersection\nodes.xml"/>
        <edge-files value=".\net\realistic_intersection\edges.xml"/>
    </input>

    <output>
        <output-file value=".\net\realistic_intersection\realistic_intersection.net.xml"/>
    </output>

    <tls_building>
        <tls.guess value="true"/>
    </tls_building>

</netconvertConfiguration>
-->

<net version="1.20" junctionCornerDetail="5" limitTurnSpeed="5.50" xmlns:xsi="http://www.w3.org/2001/XMLSchema-instance" xsi:noNamespaceSchemaLocation="http://sumo.dlr.de/xsd/net_file.xsd">

    <location netOffset="200.00,200.00" convBoundary="0.00,0.00,400.00,400.00" origBoundary="-200.00,-200.00,200.00,200.00" projParameter="!"/>

    <edge id=":e_0" function="internal">
        <lane id=":e_0_0" index="0" speed="3.65" length="4.67" shape="400.00,198.40 401.20,199.20 401.60,200.00 401.20,200.80 400.00,201.60"/>
    </edge>
    <edge id=":j0_0" function="internal">
        <lane id=":j0_0_0" index="0" speed="6.51" length="9.03" shape="192.00,210.40 191.65,207.95 190.60,206.20 188.85,205.15 186.40,204.80"/>
    </edge>
    <edge id=":j0_1" function="internal">
        <lane id=":j0_1_0" index="0" speed="16.67" length="20.80" shape="192.00,210.40 192.00,189.60"/>
        <lane id=":j0_1_1" index="1" speed="16.67" length="20.80" shape="195.20,210.40 195.20,189.60"/>
        <lane id=":j0_1_2" index="2" speed="16.67" length="20.80" shape="198.40,210.40 198.40,189.60"/>
    </edge>
    <edge id=":j0_4" function="internal">
        <lane id=":j0_4_0" index="0" speed="9.84" length="4.01" shape="198.40,210.40 199.11,206.45"/>
    </edge>
    <edge id=":j0_5" function="internal">
        <lane id=":j0_5_0" index="0" speed="3.65" length="1.44" shape="198.40,210.40 199.20,209.20"/>
    </edge>
    <edge id=":j0_22" function="internal">
        <lane id=":j0_22_0" index="0" speed="9.84" length="17.98" shape="199.11,206.45 199.35,205.15 202.20,201.40 206.95,199.15 213.60,198.40"/>
    </edge>
    <edge id=":j0_23" function="internal">
        <lane id=":j0_23_0" index="0" speed="3.65" length="3.23" shape="199.20,209.20 200.00,208.80 200.80,209.20 201.60,210.40"/>
    </edge>
    <edge id=":j0_6" function="internal">
        <lane id=":j0_6_0" index="0" speed="6.51" length="9.03" shape="213.60,204.80 211.15,205.15 209.40,206.20 208.35,207.95 208.00,210.40"/>
    </edge>
    <edge id=":j0_7" function="internal">
        <lane id=":j0_7_0" index="0" speed="13.89" length="27.20" shape="213.60,204.80 186.40,204.80"/>
        <lane id=":j0_7_1" index="1" speed="13.89" length="27.20" shape="213.60,201.60 186.40,201.60"/>
    </edge>
    <edge id=":j0_9" function="internal">
        <lane id=":j0_9_0" index="0" speed="9.84" length="6.30" shape="213.60,201.60 207.34,200.89"/>
    </edge>
    <edge id=":j0_10" function="internal">
        <lane id=":j0_10_0" index="0" speed="3.65" length="1.44" shape="213.60,201.60 212.40,200.80"/>
    </edge>
    <edge id=":j0_24" function="internal">
        <lane id=":j0_24_0" index="0" speed="9.84" length="15.70" shape="207.34,200.89 206.95,200.85 202.20,198.60 199.35,194.85 198.40,189.60"/>
    </edge>
    <edge id=":j0_25" function="internal">
        <lane id=":j0_25_0" index="0" speed="3.65" length="3.23" shape="212.40,200.80 212.00,200.00 212.40,199.20 213.60,198.40"/>
    </edge>
    <edge id=":j0_11" function="internal">
        <lane id=":j0_11_0" index="0" speed="6.51" length="9.03" shape="208.00,189.60 208.35,192.05 209.40,193.80 211.15,194.85 213.60,195.20"/>
    </edge>
    <edge id=":j0_12" function="internal">
        <lane id=":j0_12_0" index="0" speed="16.67" length="20.80" shape="208.00,189.60 208.00,210.40"/>
        <lane id=":j0_12_1" index="1" speed="16.67" length="20.80" shape="204.80,189.60 204.80,210.40"/>
        <lane id=":j0_12_2" index="2" speed="16.67" length="20.80" shape="201.60,189.60 201.60,210.40"/>
    </edge>
    <edge id=":j0_15" function="internal">
        <lane id=":j0_15_0" index="0" speed="9.84" length="4.01" shape="201.60,189.60 200.89,193.55"/>
    </edge>
    <edge id=":j0_16" function="internal">
        <lane id=":j0_16_0" index="0" speed="3.65" length="1.44" shape="201.60,189.60 200.80,190.80"/>
    </edge>
    <edge id=":j0_26" function="internal">
        <lane id=":j0_26_0" index="0" speed="9.84" length="17.98" shape="200.89,193.55 200.65,194.85 197.80,198.60 193.05,200.85 186.40,201.60"/>
    </edge>
    <edge id=":j0_27" function="internal">
        <lane id=":j0_27_0" index="0" speed="3.65" length="3.23" shape="200.80,190.80 200.00,191.20 199.20,190.80 198.40,189.60"/>
    </edge>
    <edge id=":j0_17" function="internal">
        <lane id=":j0_17_0" index="0" speed="6.51" length="9.03" shape="186.40,195.20 188.85,194.85 190.60,193.80 191.65,192.05 192.00,189.60"/>
    </edge>
    <edge id=":j0_18" function="internal">
        <lane id=":j0_18_0" index="0" speed="13.89" length="27.20" shape="186.40,195.20 213.60,195.20"/>
        <lane id=":j0_18_1" index="1" speed="13.89" length="27.20" shape="186.40,198.40 213.60,198.40"/>
    </edge>
    <edge id=":j0_20" function="internal">
        <lane id=":j0_20_0" index="0" speed="9.84" length="6.30" shape="186.40,198.40 192.66,199.11"/>
    </edge>
    <edge id=":j0_21" function="internal">
        <lane id=":j0_21_0" index="0" speed="3.65" length="1.44" shape="186.40,198.40 187.60,199.20"/>
    </edge>
    <edge id=":j0_28" function="internal">
        <lane id=":j0_28_0" index="0" speed="9.84" length="15.70" shape="192.66,199.11 193.05,199.15 197.80,201.40 200.65,205.15 201.60,210.40"/>
    </edge>
    <edge id=":j0_29" function="internal">
        <lane id=":j0_29_0" index="0" speed="3.65" length="3.23" shape="187.60,199.20 188.00,200.00 187.60,200.80 186.40,201.60"/>
    </edge>
    <edge id=":n_0" function="internal">
        <lane id=":n_0_0" index="0" speed="3.65" length="4.67" shape="201.60,400.00 200.80,401.20 200.00,401.60 199.20,401.20 198.40,400.00"/>
    </edge>
    <edge id=":s_0" function="internal">
        <lane id=":s_0_0" index="0" speed="3.65" length="4.67" shape="198.40,0.00 199.20,-1.20 200.00,-1.60 200.80,-1.20 201.60,0.00"/>
    </edge>
    <edge id=":w_0" function="internal">
        <lane id=":w_0_0" index="0" speed="3.65" length="4.67" shape="0.00,201.60 -1.20,200.80 -1.60,200.00 -1.20,199.20 0.00,198.40"/>
    </edge>

    <edge id="e_j0" from="e" to="j0" priority="2">
        <lane id="e_j0_0" index="0" speed="13.89" length="186.40" shape="400.00,204.80 213.60,204.80"/>
        <lane id="e_j0_1" index="1" speed="13.89" length="186.40" shape="400.00,201.60 213.60,201.60"/>
    </edge>
    <edge id="j0_e" from="j0" to="e" priority="2">
        <lane id="j0_e_0" index="0" speed="13.89" length="186.40" shape="213.60,195.20 400.00,195.20"/>
        <lane id="j0_e_1" index="1" speed="13.89" length="186.40" shape="213.60,198.40 400.00,198.40"/>
    </edge>
    <edge id="j0_n" from="j0" to="n" priority="3">
        <lane id="j0_n_0" index="0" speed="16.67" length="189.60" shape="208.00,210.40 208.00,400.00"/>
        <lane id="j0_n_1" index="1" speed="16.67" length="189.60" shape="204.80,210.40 204.80,400.00"/>
        <lane id="j0_n_2" index="2" speed="16.67" length="189.60" shape="201.60,210.40 201.60,400.00"/>
    </edge>
    <edge id="j0_s" from="j0" to="s" priority="3">
        <lane id="j0_s_0" index="0" speed="16.67" length="189.60" shape="192.00,189.60 192.00,0.00"/>
        <lane id="j0_s_1" index="1" speed="16.67" length="189.60" shape="195.20,189.60 195.20,0.00"/>
        <lane id="j0_s_2" index="2" speed="16.67" length="189.60" shape="198.40,189.60 198.40,0.00"/>
    </edge>
    <edge id="j0_w" from="j0" to="w" priority="2">
        <lane id="j0_w_0" index="0" speed="13.89" length="186.40" shape="186.40,204.80 0.00,204.80"/>
        <lane id="j0_w_1" index="1" speed="13.89" length="186.40" shape="186.40,201.60 0.00,201.60"/>
    </edge>
    <edge id="n_j0" from="n" to="j0" priority="3">
        <lane id="n_j0_0" index="0" speed="16.67" length="189.60" shape="192.00,400.00 192.00,210.40"/>
        <lane id="n_j0_1" index="1" speed="16.67" length="189.60" shape="195.20,400.00 195.20,210.40"/>
        <lane id="n_j0_2" index="2" speed="16.67" length="189.60" shape="198.40,400.00 198.40,210.40"/>
    </edge>
    <edge id="s_j0" from="s" to="j0" priority="3">
        <lane id="s_j0_0" index="0" speed="16.67" length="189.60" shape="208.00,0.00 208.00,189.60"/>
        <lane id="s_j0_1" index="1" speed="16.67" length="189.60" shape="204.80,0.00 204.80,189.60"/>
        <lane id="s_j0_2" index="2" speed="16.67" length="189.60" shape="201.60,0.00 201.60,189.60"/>
    </edge>
    <edge id="w_j0" from="w" to="j0" priority="2">
        <lane id="w_j0_0" index="0" speed="13.89" length="186.40" shape="0.00,195.20 186.40,195.20"/>
        <lane id="w_j0_1" index="1" speed="13.89" length="186.40" shape="0.00,198.40 186.40,198.40"/>
    </edge>

    <tlLogic id="j0" type="static" programID="0" offset="0">
        <phase duration="41" state="GGGGggrrrrrGGGGggrrrrr"/>
        <phase duration="4"  state="yyyyyyrrrrryyyyyyrrrrr"/>
        <phase duration="41" state="rrrrrrGGGggrrrrrrGGGgg"/>
        <phase duration="4"  state="rrrrrryyyyyrrrrrryyyyy"/>
    </tlLogic>

    <junction id="e" type="priority" x="400.00" y="200.00" incLanes="j0_e_0 j0_e_1" intLanes=":e_0_0" shape="400.00,200.00 400.00,193.60 400.00,200.00">
        <request index="0" response="0" foes="0" cont="0"/>
    </junction>
    <junction id="j0" type="traffic_light" x="200.00" y="200.00" incLanes="n_j0_0 n_j0_1 n_j0_2 e_j0_0 e_j0_1 s_j0_0 s_j0_1 s_j0_2 w_j0_0 w_j0_1" intLanes=":j0_0_0 :j0_1_0 :j0_1_1 :j0_1_2 :j0_22_0 :j0_23_0 :j0_6_0 :j0_7_0 :j0_7_1 :j0_24_0 :j0_25_0 :j0_11_0 :j0_12_0 :j0_12_1 :j0_12_2 :j0_26_0 :j0_27_0 :j0_17_0 :j0_18_0 :j0_18_1 :j0_28_0 :j0_29_0" shape="190.40,210.40 209.60,210.40 210.04,208.18 210.60,207.40 211.38,206.84 212.38,206.51 213.60,206.40 213.60,193.60 211.38,193.16 210.60,192.60 210.04,191.82 209.71,190.82 209.60,189.60 190.40,189.60 189.96,191.82 189.40,192.60 188.62,193.16 187.62,193.49 186.40,193.60 186.40,206.40 188.62,206.84 189.40,207.40 189.96,208.18 190.29,209.18">
        <request index="0"  response="0000000000000000000000" foes="0000000000000110000000" cont="0"/>
        <request index="1"  response="0100000000001000000000" foes="0111111000001110000000" cont="0"/>
        <request index="2"  response="0100000000001000000000" foes="0111111000001110000000" cont="0"/>
        <request index="3"  response="0100000000001000000000" foes="0111111000001110000000" cont="0"/>
        <request index="4"  response="0100000111001000000000" foes="0111000111011110000000" cont="1"/>
        <request index="5"  response="0100000111000000000000" foes="0100000111000000000000" cont="1"/>
        <request index="6"  response="0000000111000000000000" foes="0000000111000000000000" cont="0"/>
        <request index="7"  response="0000001111000000011111" foes="1100001111000000011111" cont="0"/>
        <request index="8"  response="0000001111000000011111" foes="1100001111000000011111" cont="0"/>
        <request index="9"  response="0011001111000000011110" foes="0011011111000000011110" cont="1"/>
        <request index="10" response="0011000000000000010000" foes="0011000000000000010000" cont="1"/>
        <request index="11" response="0000000000000000000000" foes="0011000000000000000000" cont="0"/>
        <request index="12" response="0100000000001000000000" foes="0111000000001111110000" cont="0"/>
        <request index="13" response="0100000000001000000000" foes="0111000000001111110000" cont="0"/>
        <request index="14" response="0100000000001000000000" foes="0111000000001111110000" cont="0"/>
        <request index="15" response="0100000000001000001110" foes="1111000000001110001110" cont="1"/>
        <request index="16" response="0000000000001000001110" foes="0000000000001000001110" cont="1"/>
        <request index="17" response="0000000000000000001110" foes="0000000000000000001110" cont="0"/>
        <request index="18" response="0000001111100000011110" foes="0000001111111000011110" cont="0"/>
        <request index="19" response="0000001111100000011110" foes="0000001111111000011110" cont="0"/>
        <request index="20" response="0000001111000110011110" foes="0000001111000110111110" cont="1"/>
        <request index="21" response="0000001000000110000000" foes="0000001000000110000000" cont="1"/>
    </junction>
    <junction id="n" type="priority" x="200.00" y="400.00" incLanes="j0_n_0 j0_n_1 j0_n_2" intLanes=":n_0_0" shape="200.00,400.00 209.60,400.00 200.00,400.00">
        <request index="0" response="0" foes="0" cont="0"/>
    </junction>
    <junction id="s" type="priority" x="200.00" y="0.00" incLanes="j0_s_0 j0_s_1 j0_s_2" intLanes=":s_0_0" shape="200.00,0.00 190.40,0.00 200.00,0.00">
        <request index="0" response="0" foes="0" cont="0"/>
    </junction>
    <junction id="w" type="priority" x="0.00" y="200.00" incLanes="j0_w_0 j0_w_1" intLanes=":w_0_0" shape="0.00,200.00 0.00,206.40 0.00,200.00">
        <request index="0" response="0" foes="0" cont="0"/>
    </junction>

    <junction id=":j0_22_0" type="internal" x="199.11" y="206.45" incLanes=":j0_4_0 s_j0_0 s_j0_1 s_j0_2" intLanes=":j0_7_0 :j0_7_1 :j0_9_0 :j0_10_0 :j0_11_0 :j0_12_0 :j0_12_1 :j0_12_2 :j0_18_0 :j0_18_1 :j0_20_0"/>
    <junction id=":j0_23_0" type="internal" x="199.20" y="209.20" incLanes=":j0_5_0 e_j0_0 s_j0_0 s_j0_1 s_j0_2 w_j0_1" intLanes=":j0_6_0 :j0_12_0 :j0_12_1 :j0_12_2 :j0_20_0"/>
    <junction id=":j0_24_0" type="internal" x="207.34" y="200.89" incLanes=":j0_9_0 w_j0_0 w_j0_1" intLanes=":j0_1_0 :j0_1_1 :j0_1_2 :j0_4_0 :j0_12_0 :j0_12_1 :j0_12_2 :j0_15_0 :j0_16_0 :j0_17_0 :j0_18_0 :j0_18_1"/>
    <junction id=":j0_25_0" type="internal" x="212.40" y="200.80" incLanes=":j0_10_0 n_j0_2 s_j0_0 w_j0_0 w_j0_1" intLanes=":j0_4_0 :j0_11_0 :j0_18_0 :j0_18_1"/>
    <junction id=":j0_26_0" type="internal" x="200.89" y="193.55" incLanes=":j0_15_0 n_j0_0 n_j0_1 n_j0_2" intLanes=":j0_0_0 :j0_1_0 :j0_1_1 :j0_1_2 :j0_7_0 :j0_7_1 :j0_9_0 :j0_18_0 :j0_18_1 :j0_20_0 :j0_21_0"/>
    <junction id=":j0_27_0" type="internal" x="200.80" y="190.80" incLanes=":j0_16_0 e_j0_1 n_j0_0 n_j0_1 n_j0_2 w_j0_0" intLanes=":j0_1_0 :j0_1_1 :j0_1_2 :j0_9_0 :j0_17_0"/>
    <junction id=":j0_28_0" type="internal" x="192.66" y="199.11" incLanes=":j0_20_0 e_j0_0 e_j0_1" intLanes=":j0_1_0 :j0_1_1 :j0_1_2 :j0_4_0 :j0_5_0 :j0_6_0 :j0_7_0 :j0_7_1 :j0_12_0 :j0_12_1 :j0_12_2 :j0_15_0"/>
    <junction id=":j0_29_0" type="internal" x="187.60" y="199.20" incLanes=":j0_21_0 e_j0_0 e_j0_1 n_j0_0 s_j0_2" intLanes=":j0_0_0 :j0_7_0 :j0_7_1 :j0_15_0"/>

    <connection from="e_j0" to="j0_n" fromLane="0" toLane="0" via=":j0_6_0" tl="j0" linkIndex="6" dir="r" state="o"/>
    <connection from="e_j0" to="j0_w" fromLane="0" toLane="0" via=":j0_7_0" tl="j0" linkIndex="7" dir="s" state="o"/>
    <connection from="e_j0" to="j0_w" fromLane="1" toLane="1" via=":j0_7_1" tl="j0" linkIndex="8" dir="s" state="o"/>
    <connection from="e_j0" to="j0_s" fromLane="1" toLane="2" via=":j0_9_0" tl="j0" linkIndex="9" dir="l" state="o"/>
    <connection from="e_j0" to="j0_e" fromLane="1" toLane="1" via=":j0_10_0" tl="j0" linkIndex="10" dir="t" state="o"/>
    <connection from="j0_e" to="e_j0" fromLane="1" toLane="1" via=":e_0_0" dir="t" state="M"/>
    <connection from="j0_n" to="n_j0" fromLane="2" toLane="2" via=":n_0_0" dir="t" state="M"/>
    <connection from="j0_s" to="s_j0" fromLane="2" toLane="2" via=":s_0_0" dir="t" state="M"/>
    <connection from="j0_w" to="w_j0" fromLane="1" toLane="1" via=":w_0_0" dir="t" state="M"/>
    <connection from="n_j0" to="j0_w" fromLane="0" toLane="0" via=":j0_0_0" tl="j0" linkIndex="0" dir="r" state="O"/>
    <connection from="n_j0" to="j0_s" fromLane="0" toLane="0" via=":j0_1_0" tl="j0" linkIndex="1" dir="s" state="O"/>
    <connection from="n_j0" to="j0_s" fromLane="1" toLane="1" via=":j0_1_1" tl="j0" linkIndex="2" dir="s" state="O"/>
    <connection from="n_j0" to="j0_s" fromLane="2" toLane="2" via=":j0_1_2" tl="j0" linkIndex="3" dir="s" state="O"/>
    <connection from="n_j0" to="j0_e" fromLane="2" toLane="1" via=":j0_4_0" tl="j0" linkIndex="4" dir="l" state="o"/>
    <connection from="n_j0" to="j0_n" fromLane="2" toLane="2" via=":j0_5_0" tl="j0" linkIndex="5" dir="t" state="o"/>
    <connection from="s_j0" to="j0_e" fromLane="0" toLane="0" via=":j0_11_0" tl="j0" linkIndex="11" dir="r" state="O"/>
    <connection from="s_j0" to="j0_n" fromLane="0" toLane="0" via=":j0_12_0" tl="j0" linkIndex="12" dir="s" state="O"/>
    <connection from="s_j0" to="j0_n" fromLane="1" toLane="1" via=":j0_12_1" tl="j0" linkIndex="13" dir="s" state="O"/>
    <connection from="s_j0" to="j0_n" fromLane="2" toLane="2" via=":j0_12_2" tl="j0" linkIndex="14" dir="s" state="O"/>
    <connection from="s_j0" to="j0_w" fromLane="2" toLane="1" via=":j0_15_0" tl="j0" linkIndex="15" dir="l" state="o"/>
    <connection from="s_j0" to="j0_s" fromLane="2" toLane="2" via=":j0_16_0" tl="j0" linkIndex="16" dir="t" state="o"/>
    <connection from="w_j0" to="j0_s" fromLane="0" toLane="0" via=":j0_17_0" tl="j0" linkIndex="17" dir="r" state="o"/>
    <connection from="w_j0" to="j0_e" fromLane="0" toLane="0" via=":j0_18_0" tl="j0" linkIndex="18" dir="s" state="o"/>
    <connection from="w_j0" to="j0_e" fromLane="1" toLane="1" via=":j0_18_1" tl="j0" linkIndex="19" dir="s" state="o"/>
    <connection from="w_j0" to="j0_n" fromLane="1" toLane="2" via=":j0_20_0" tl="j0" linkIndex="20" dir="l" state="o"/>
    <connection from="w_j0" to="j0_w" fromLane="1" toLane="1" via=":j0_21_0" tl="j0" linkIndex="21" dir="t" state="o"/>

    <connection from=":e_0" to="e_j0" fromLane="0" toLane="1" dir="t" state="M"/>
    <connection from=":j0_0" to="j0_w" fromLane="0" toLane="0" dir="r" state="M"/>
    <connection from=":j0_1" to="j0_s" fromLane="0" toLane="0" dir="s" state="M"/>
    <connection from=":j0_1" to="j0_s" fromLane="1" toLane="1" dir="s" state="M"/>
    <connection from=":j0_1" to="j0_s" fromLane="2" toLane="2" dir="s" state="M"/>
    <connection from=":j0_4" to="j0_e" fromLane="0" toLane="1" via=":j0_22_0" dir="l" state="m"/>
    <connection from=":j0_22" to="j0_e" fromLane="0" toLane="1" dir="l" state="M"/>
    <connection from=":j0_5" to="j0_n" fromLane="0" toLane="2" via=":j0_23_0" dir="t" state="m"/>
    <connection from=":j0_23" to="j0_n" fromLane="0" toLane="2" dir="t" state="M"/>
    <connection from=":j0_6" to="j0_n" fromLane="0" toLane="0" dir="r" state="M"/>
    <connection from=":j0_7" to="j0_w" fromLane="0" toLane="0" dir="s" state="M"/>
    <connection from=":j0_7" to="j0_w" fromLane="1" toLane="1" dir="s" state="M"/>
    <connection from=":j0_9" to="j0_s" fromLane="0" toLane="2" via=":j0_24_0" dir="l" state="m"/>
    <connection from=":j0_24" to="j0_s" fromLane="0" toLane="2" dir="l" state="M"/>
    <connection from=":j0_10" to="j0_e" fromLane="0" toLane="1" via=":j0_25_0" dir="t" state="m"/>
    <connection from=":j0_25" to="j0_e" fromLane="0" toLane="1" dir="t" state="M"/>
    <connection from=":j0_11" to="j0_e" fromLane="0" toLane="0" dir="r" state="M"/>
    <connection from=":j0_12" to="j0_n" fromLane="0" toLane="0" dir="s" state="M"/>
    <connection from=":j0_12" to="j0_n" fromLane="1" toLane="1" dir="s" state="M"/>
    <connection from=":j0_12" to="j0_n" fromLane="2" toLane="2" dir="s" state="M"/>
    <connection from=":j0_15" to="j0_w" fromLane="0" toLane="1" via=":j0_26_0" dir="l" state="m"/>
    <connection from=":j0_26" to="j0_w" fromLane="0" toLane="1" dir="l" state="M"/>
    <connection from=":j0_16" to="j0_s" fromLane="0" toLane="2" via=":j0_27_0" dir="t" state="m"/>
    <connection from=":j0_27" to="j0_s" fromLane="0" toLane="2" dir="t" state="M"/>
    <connection from=":j0_17" to="j0_s" fromLane="0" toLane="0" dir="r" state="M"/>
    <connection from=":j0_18" to="j0_e" fromLane="0" toLane="0" dir="s" state="M"/>
    <connection from=":j0_18" to="j0_e" fromLane="1" toLane="1" dir="s" state="M"/>
    <connection from=":j0_20" to="j0_n" fromLane="0" toLane="2" via=":j0_28_0" dir="l" state="m"/>
    <connection from=":j0_28" to="j0_n" fromLane="0" toLane="2" dir="l" state="M"/>
    <connection from=":j0_21" to="j0_w" fromLane="0" toLane="1" via=":j0_29_0" dir="t" state="m"/>
    <connection from=":j0_29" to="j0_w" fromLane="0" toLane="1" dir="t" state="M"/>
    <connection from=":n_0" to="n_j0" fromLane="0" toLane="2" dir="t" state="M"/>
    <connection from=":s_0" to="s_j0" fromLane="0" toLane="2" dir="t" state="M"/>
    <connection from=":w_0" to="w_j0" fromLane="0" toLane="1" dir="t" state="M"/>

</net>
